*SPEF "1481-1998"
*DESIGN "i2c_master_top"
*DATE "Fri Jan 27 09:52:41 2017"
*VENDOR "Synopsys, Inc."
*PROGRAM "icc_shell"
*VERSION "G-2012.06-ICC-SP2"
*DESIGN_FLOW "PIN_CAP NONE"
*DIVIDER /
*DELIMITER :
*BUS_DELIMITER [ ]
*T_UNIT 1 NS
*C_UNIT 1 FF
*R_UNIT 1 OHM
*L_UNIT 1 HENRY

*NAME_MAP
*1 wb_adr_i[2]
*2 wb_adr_i[1]
*3 wb_adr_i[0]
*4 wb_dat_i[7]
*5 wb_dat_i[6]
*6 wb_dat_i[5]
*7 wb_dat_i[4]
*8 wb_dat_i[3]
*9 wb_dat_i[2]
*10 wb_dat_i[1]
*11 wb_dat_i[0]
*12 wb_dat_o[7]
*13 wb_dat_o[6]
*14 wb_dat_o[5]
*15 wb_dat_o[4]
*16 wb_dat_o[3]
*17 wb_dat_o[2]
*18 wb_dat_o[1]
*19 wb_dat_o[0]
*20 sda_pad_i
*21 scl_pad_i
*22 wb_cyc_i
*23 wb_stb_i
*24 wb_we_i
*25 arst_i
*26 wb_rst_i
*27 wb_clk_i
*28 sda_padoen_o
*29 sda_pad_o
*30 scl_padoen_o
*31 scl_pad_o
*32 wb_inta_o
*33 wb_ack_o
*34 VSS
*35 VDD
*36 byte_controller/bit_controller/cnt\[1\]
*37 byte_controller/bit_controller/sub_228/U49
*38 byte_controller/bit_controller/sub_228/U16
*39 byte_controller/bit_controller/U110
*40 byte_controller/bit_controller/U81
*41 byte_controller/bit_controller/cnt_reg_1_
*42 byte_controller/bit_controller/cnt\[0\]
*43 byte_controller/bit_controller/sub_228/U19
*44 byte_controller/bit_controller/U112
*45 byte_controller/bit_controller/cnt_reg_0_
*46 byte_controller/bit_controller/sub_228/n31
*47 byte_controller/bit_controller/sub_228/U29
*48 byte_controller/bit_controller/sub_228/U5
*49 byte_controller/bit_controller/sub_228/n11
*50 byte_controller/bit_controller/sub_228/U48
*51 byte_controller/bit_controller/sub_228/U30
*52 byte_controller/bit_controller/cnt\[2\]
*53 byte_controller/bit_controller/sub_228/U15
*54 byte_controller/bit_controller/U108
*55 byte_controller/bit_controller/cnt_reg_2_
*56 byte_controller/bit_controller/sub_228/n30
*57 byte_controller/bit_controller/sub_228/U28
*58 byte_controller/bit_controller/sub_228/U4
*59 byte_controller/bit_controller/sub_228/n10
*60 byte_controller/bit_controller/sub_228/U47
*61 byte_controller/bit_controller/cnt\[3\]
*62 byte_controller/bit_controller/sub_228/U14
*63 byte_controller/bit_controller/U106
*64 byte_controller/bit_controller/cnt_reg_3_
*65 byte_controller/bit_controller/sub_228/n29
*66 byte_controller/bit_controller/sub_228/U27
*67 byte_controller/bit_controller/sub_228/U3
*68 byte_controller/bit_controller/sub_228/n9
*69 byte_controller/bit_controller/sub_228/U46
*70 byte_controller/bit_controller/cnt\[4\]
*71 byte_controller/bit_controller/sub_228/U13
*72 byte_controller/bit_controller/U104
*73 byte_controller/bit_controller/U80
*74 byte_controller/bit_controller/cnt_reg_4_
*75 byte_controller/bit_controller/sub_228/n28
*76 byte_controller/bit_controller/sub_228/U26
*77 byte_controller/bit_controller/sub_228/U2
*78 byte_controller/bit_controller/sub_228/n8
*79 byte_controller/bit_controller/sub_228/U45
*80 byte_controller/bit_controller/cnt\[5\]
*81 byte_controller/bit_controller/sub_228/U12
*82 byte_controller/bit_controller/U102
*83 byte_controller/bit_controller/cnt_reg_5_
*84 byte_controller/bit_controller/sub_228/n27
*85 byte_controller/bit_controller/sub_228/U25
*86 byte_controller/bit_controller/sub_228/U1
*87 byte_controller/bit_controller/sub_228/n1
*88 byte_controller/bit_controller/sub_228/U44
*89 byte_controller/bit_controller/sub_228/U24
*90 byte_controller/bit_controller/sub_228/U17
*91 byte_controller/bit_controller/cnt\[7\]
*92 byte_controller/bit_controller/U98
*93 byte_controller/bit_controller/cnt_reg_7_
*94 byte_controller/bit_controller/sub_228/n25
*95 byte_controller/bit_controller/sub_228/U43
*96 byte_controller/bit_controller/sub_228/U23
*97 byte_controller/bit_controller/sub_228/n19
*98 byte_controller/bit_controller/sub_228/U18
*99 byte_controller/bit_controller/sub_228/n23
*100 byte_controller/bit_controller/sub_228/U42
*101 byte_controller/bit_controller/sub_228/U22
*102 byte_controller/bit_controller/cnt\[9\]
*103 byte_controller/bit_controller/U95
*104 byte_controller/bit_controller/U82
*105 byte_controller/bit_controller/cnt_reg_9_
*106 byte_controller/bit_controller/sub_228/n24
*107 byte_controller/bit_controller/sub_228/U41
*108 byte_controller/bit_controller/sub_228/U40
*109 byte_controller/bit_controller/sub_228/n20
*110 byte_controller/bit_controller/sub_228/U20
*111 byte_controller/bit_controller/sub_228/n38
*112 byte_controller/bit_controller/sub_228/U39
*113 byte_controller/bit_controller/sub_228/U38
*114 byte_controller/bit_controller/N44
*115 byte_controller/bit_controller/U57
*116 byte_controller/bit_controller/cnt\[11\]
*117 byte_controller/bit_controller/U93
*118 byte_controller/bit_controller/cnt_reg_11_
*119 byte_controller/bit_controller/sub_228/n36
*120 byte_controller/bit_controller/sub_228/U6
*121 byte_controller/bit_controller/sub_228/n37
*122 byte_controller/bit_controller/sub_228/U8
*123 byte_controller/bit_controller/sub_228/n4
*124 byte_controller/bit_controller/sub_228/U37
*125 byte_controller/bit_controller/sub_228/U36
*126 byte_controller/bit_controller/cnt\[12\]
*127 byte_controller/bit_controller/U91
*128 byte_controller/bit_controller/U85
*129 byte_controller/bit_controller/cnt_reg_12_
*130 byte_controller/bit_controller/sub_228/n34
*131 byte_controller/bit_controller/sub_228/U35
*132 byte_controller/bit_controller/sub_228/U34
*133 byte_controller/bit_controller/sub_228/n35
*134 byte_controller/bit_controller/sub_228/U7
*135 byte_controller/bit_controller/sub_228/n21
*136 byte_controller/bit_controller/sub_228/U21
*137 byte_controller/bit_controller/sub_228/n33
*138 byte_controller/bit_controller/sub_228/U33
*139 byte_controller/bit_controller/sub_228/U32
*140 byte_controller/bit_controller/N47
*141 byte_controller/bit_controller/U55
*142 byte_controller/bit_controller/cnt\[14\]
*143 byte_controller/bit_controller/U89
*144 byte_controller/bit_controller/cnt_reg_14_
*145 byte_controller/bit_controller/N48
*146 byte_controller/bit_controller/sub_228/n32
*147 byte_controller/bit_controller/sub_228/U31
*148 byte_controller/bit_controller/cnt\[15\]
*149 byte_controller/bit_controller/U87
*150 byte_controller/bit_controller/cnt_reg_15_
*151 byte_controller/bit_controller/N49
*152 byte_controller/bit_controller/N34
*153 byte_controller/bit_controller/sub_228/n13
*154 byte_controller/bit_controller/N35
*155 byte_controller/bit_controller/sub_228/n14
*156 byte_controller/bit_controller/N36
*157 byte_controller/bit_controller/sub_228/n15
*158 byte_controller/bit_controller/N3710
*159 byte_controller/bit_controller/sub_228/n16
*160 byte_controller/bit_controller/N3810
*161 byte_controller/bit_controller/sub_228/n7
*162 byte_controller/bit_controller/sub_228/n17
*163 byte_controller/bit_controller/N3910
*164 byte_controller/bit_controller/sub_228/n18
*165 byte_controller/bit_controller/sub_228/U11
*166 byte_controller/bit_controller/N40
*167 byte_controller/bit_controller/U100
*168 byte_controller/bit_controller/sub_228/n26
*169 byte_controller/bit_controller/sub_228/U10
*170 byte_controller/bit_controller/N42
*171 byte_controller/bit_controller/U59
*172 byte_controller/bit_controller/sub_228/n22
*173 byte_controller/bit_controller/sub_228/U9
*174 byte_controller/bit_controller/cnt\[13\]
*175 byte_controller/bit_controller/cnt_reg_13_
*176 byte_controller/bit_controller/cnt\[10\]
*177 byte_controller/bit_controller/cnt_reg_10_
*178 byte_controller/bit_controller/cnt\[8\]
*179 byte_controller/bit_controller/cnt_reg_8_
*180 byte_controller/bit_controller/cnt\[6\]
*181 byte_controller/bit_controller/cnt_reg_6_
*182 byte_controller/bit_controller/N41
*183 byte_controller/bit_controller/N43
*184 byte_controller/bit_controller/N45
*185 byte_controller/bit_controller/N46
*186 byte_controller/bit_controller/filter_cnt\[1\]
*187 byte_controller/bit_controller/sub_260/U43
*188 byte_controller/bit_controller/sub_260/U13
*189 byte_controller/bit_controller/filter_cnt_reg_1_
*190 byte_controller/bit_controller/filter_cnt\[0\]
*191 byte_controller/bit_controller/sub_260/U16
*192 byte_controller/bit_controller/U198
*193 byte_controller/bit_controller/filter_cnt_reg_0_
*194 byte_controller/bit_controller/sub_260/n29
*195 byte_controller/bit_controller/sub_260/U27
*196 byte_controller/bit_controller/sub_260/U6
*197 byte_controller/bit_controller/sub_260/n9
*198 byte_controller/bit_controller/sub_260/U42
*199 byte_controller/bit_controller/sub_260/U28
*200 byte_controller/bit_controller/filter_cnt\[2\]
*201 byte_controller/bit_controller/sub_260/U12
*202 byte_controller/bit_controller/filter_cnt_reg_2_
*203 byte_controller/bit_controller/sub_260/n28
*204 byte_controller/bit_controller/sub_260/U26
*205 byte_controller/bit_controller/sub_260/U5
*206 byte_controller/bit_controller/sub_260/n8
*207 byte_controller/bit_controller/sub_260/U41
*208 byte_controller/bit_controller/filter_cnt\[3\]
*209 byte_controller/bit_controller/sub_260/U11
*210 byte_controller/bit_controller/U199
*211 byte_controller/bit_controller/filter_cnt_reg_3_
*212 byte_controller/bit_controller/sub_260/n27
*213 byte_controller/bit_controller/sub_260/U25
*214 byte_controller/bit_controller/sub_260/U4
*215 byte_controller/bit_controller/sub_260/n7
*216 byte_controller/bit_controller/sub_260/U40
*217 byte_controller/bit_controller/filter_cnt\[4\]
*218 byte_controller/bit_controller/sub_260/U10
*219 byte_controller/bit_controller/filter_cnt_reg_4_
*220 byte_controller/bit_controller/sub_260/n26
*221 byte_controller/bit_controller/sub_260/U24
*222 byte_controller/bit_controller/sub_260/U3
*223 byte_controller/bit_controller/sub_260/n6
*224 byte_controller/bit_controller/sub_260/U39
*225 byte_controller/bit_controller/filter_cnt\[5\]
*226 byte_controller/bit_controller/sub_260/U9
*227 byte_controller/bit_controller/filter_cnt_reg_5_
*228 byte_controller/bit_controller/sub_260/n25
*229 byte_controller/bit_controller/sub_260/U23
*230 byte_controller/bit_controller/sub_260/U2
*231 byte_controller/bit_controller/sub_260/n1
*232 byte_controller/bit_controller/sub_260/U38
*233 byte_controller/bit_controller/sub_260/U22
*234 byte_controller/bit_controller/sub_260/U15
*235 byte_controller/bit_controller/filter_cnt\[7\]
*236 byte_controller/bit_controller/filter_cnt_reg_7_
*237 byte_controller/bit_controller/sub_260/n23
*238 byte_controller/bit_controller/sub_260/U37
*239 byte_controller/bit_controller/sub_260/U21
*240 byte_controller/bit_controller/sub_260/n17
*241 byte_controller/bit_controller/sub_260/U19
*242 byte_controller/bit_controller/sub_260/n21
*243 byte_controller/bit_controller/sub_260/U36
*244 byte_controller/bit_controller/sub_260/U20
*245 byte_controller/bit_controller/filter_cnt\[9\]
*246 byte_controller/bit_controller/filter_cnt_reg_9_
*247 byte_controller/bit_controller/sub_260/n22
*248 byte_controller/bit_controller/sub_260/U35
*249 byte_controller/bit_controller/sub_260/U34
*250 byte_controller/bit_controller/sub_260/n18
*251 byte_controller/bit_controller/sub_260/U17
*252 byte_controller/bit_controller/sub_260/n32
*253 byte_controller/bit_controller/sub_260/U1
*254 byte_controller/bit_controller/N871
*255 byte_controller/bit_controller/U69
*256 byte_controller/bit_controller/sub_260/n2
*257 byte_controller/bit_controller/sub_260/U33
*258 byte_controller/bit_controller/sub_260/U32
*259 byte_controller/bit_controller/sub_260/n19
*260 byte_controller/bit_controller/sub_260/U18
*261 byte_controller/bit_controller/sub_260/n31
*262 byte_controller/bit_controller/sub_260/U31
*263 byte_controller/bit_controller/sub_260/U30
*264 byte_controller/bit_controller/N88
*265 byte_controller/bit_controller/U67
*266 byte_controller/bit_controller/filter_cnt\[12\]
*267 byte_controller/bit_controller/filter_cnt_reg_12_
*268 byte_controller/bit_controller/N89
*269 byte_controller/bit_controller/U150
*270 byte_controller/bit_controller/sub_260/n30
*271 byte_controller/bit_controller/sub_260/U29
*272 byte_controller/bit_controller/filter_cnt\[13\]
*273 byte_controller/bit_controller/filter_cnt_reg_13_
*274 byte_controller/bit_controller/N90
*275 byte_controller/bit_controller/U148
*276 byte_controller/bit_controller/N77
*277 byte_controller/bit_controller/U75
*278 byte_controller/bit_controller/sub_260/n11
*279 byte_controller/bit_controller/N78
*280 byte_controller/bit_controller/U169
*281 byte_controller/bit_controller/sub_260/n12
*282 byte_controller/bit_controller/N79
*283 byte_controller/bit_controller/U164
*284 byte_controller/bit_controller/sub_260/n13
*285 byte_controller/bit_controller/N800
*286 byte_controller/bit_controller/U161
*287 byte_controller/bit_controller/sub_260/n14
*288 byte_controller/bit_controller/N81
*289 byte_controller/bit_controller/U158
*290 byte_controller/bit_controller/sub_260/n5
*291 byte_controller/bit_controller/sub_260/n15
*292 byte_controller/bit_controller/N821
*293 byte_controller/bit_controller/U156
*294 byte_controller/bit_controller/sub_260/n16
*295 byte_controller/bit_controller/sub_260/U8
*296 byte_controller/bit_controller/N83
*297 byte_controller/bit_controller/U154
*298 byte_controller/bit_controller/sub_260/n24
*299 byte_controller/bit_controller/sub_260/U7
*300 byte_controller/bit_controller/N85
*301 byte_controller/bit_controller/U72
*302 byte_controller/bit_controller/sub_260/n20
*303 byte_controller/bit_controller/sub_260/U14
*304 byte_controller/bit_controller/filter_cnt\[8\]
*305 byte_controller/bit_controller/filter_cnt_reg_8_
*306 byte_controller/bit_controller/filter_cnt\[11\]
*307 byte_controller/bit_controller/filter_cnt_reg_11_
*308 byte_controller/bit_controller/filter_cnt\[10\]
*309 byte_controller/bit_controller/filter_cnt_reg_10_
*310 byte_controller/bit_controller/filter_cnt\[6\]
*311 byte_controller/bit_controller/filter_cnt_reg_6_
*312 byte_controller/bit_controller/N86
*313 byte_controller/bit_controller/U171
*314 byte_controller/bit_controller/N84
*315 byte_controller/bit_controller/U152
*316 byte_controller/n143
*317 byte_controller/c_state_reg_2_
*318 byte_controller/core_txd_reg
*319 byte_controller/ack_out_reg
*320 byte_controller/cmd_ack_reg
*321 byte_controller/U25
*322 byte_controller/n144
*323 byte_controller/sr_reg_6_
*324 byte_controller/shift_reg
*325 byte_controller/sr_reg_7_
*326 byte_controller/ld_reg
*327 byte_controller/U26
*328 byte_controller/n145
*329 byte_controller/c_state_reg_4_
*330 byte_controller/core_cmd_reg_1_
*331 byte_controller/core_cmd_reg_3_
*332 byte_controller/core_cmd_reg_0_
*333 byte_controller/U104
*334 byte_controller/n146
*335 byte_controller/sr_reg_4_
*336 byte_controller/dcnt_reg_1_
*337 byte_controller/sr_reg_5_
*338 byte_controller/sr_reg_0_
*339 byte_controller/U105
*340 byte_controller/n147
*341 byte_controller/sr_reg_2_
*342 byte_controller/sr_reg_3_
*343 byte_controller/dcnt_reg_2_
*344 byte_controller/dcnt_reg_0_
*345 byte_controller/U106
*346 byte_controller/n148
*347 byte_controller/U107
*348 byte_controller/BUF_X1_G5B1I1
*349 byte_controller/n157
*350 byte_controller/U116
*351 byte_controller/CTS_wb_clk_i_CTO_delay6
*352 byte_controller/n158
*353 byte_controller/U117
*354 byte_controller/bit_controller/U229
*355 byte_controller/bit_controller/U236
*356 byte_controller/bit_controller/U300
*357 byte_controller/bit_controller/U299
*358 byte_controller/bit_controller/n80
*359 byte_controller/bit_controller/U298
*360 byte_controller/bit_controller/U297
*361 byte_controller/bit_controller/n82
*362 byte_controller/bit_controller/U120
*363 byte_controller/bit_controller/U118
*364 byte_controller/bit_controller/U224
*365 byte_controller/bit_controller/U117
*366 byte_controller/bit_controller/U231
*367 byte_controller/bit_controller/n87
*368 byte_controller/bit_controller/U263
*369 byte_controller/bit_controller/U261
*370 byte_controller/bit_controller/U3
*371 byte_controller/bit_controller/n910
*372 byte_controller/bit_controller/U119
*373 byte_controller/bit_controller/U240
*374 prer\[2\]
*375 byte_controller/bit_controller/U220
*376 prer_reg_2_
*377 byte_controller/bit_controller/n281
*378 byte_controller/bit_controller/U107
*379 byte_controller/bit_controller/U74
*380 prer\[3\]
*381 byte_controller/bit_controller/U219
*382 prer_reg_3_
*383 byte_controller/bit_controller/n280
*384 byte_controller/bit_controller/U166
*385 byte_controller/bit_controller/U105
*386 prer\[4\]
*387 byte_controller/bit_controller/U218
*388 prer_reg_4_
*389 byte_controller/bit_controller/n279
*390 byte_controller/bit_controller/U162
*391 byte_controller/bit_controller/U103
*392 prer\[5\]
*393 byte_controller/bit_controller/U217
*394 prer_reg_5_
*395 byte_controller/bit_controller/n278
*396 byte_controller/bit_controller/U159
*397 byte_controller/bit_controller/U101
*398 prer\[6\]
*399 byte_controller/bit_controller/U216
*400 prer_reg_6_
*401 byte_controller/bit_controller/n277
*402 byte_controller/bit_controller/U157
*403 byte_controller/bit_controller/U99
*404 prer\[7\]
*405 byte_controller/bit_controller/U215
*406 prer_reg_7_
*407 byte_controller/bit_controller/n276
*408 byte_controller/bit_controller/U155
*409 byte_controller/bit_controller/U97
*410 prer\[11\]
*411 byte_controller/bit_controller/U214
*412 U273
*413 U227
*414 prer_reg_11_
*415 byte_controller/bit_controller/n272
*416 byte_controller/bit_controller/U170
*417 byte_controller/bit_controller/U92
*418 prer\[8\]
*419 byte_controller/bit_controller/U213
*420 U240
*421 U221
*422 prer_reg_8_
*423 byte_controller/bit_controller/n275
*424 byte_controller/bit_controller/U153
*425 byte_controller/bit_controller/U58
*426 prer\[9\]
*427 byte_controller/bit_controller/U212
*428 U244
*429 U223
*430 prer_reg_9_
*431 byte_controller/bit_controller/n274
*432 byte_controller/bit_controller/U151
*433 byte_controller/bit_controller/U94
*434 prer\[10\]
*435 byte_controller/bit_controller/U211
*436 U270
*437 U225
*438 prer_reg_10_
*439 byte_controller/bit_controller/n273
*440 byte_controller/bit_controller/U71
*441 byte_controller/bit_controller/U56
*442 prer\[12\]
*443 byte_controller/bit_controller/U210
*444 U276
*445 U229
*446 prer_reg_12_
*447 byte_controller/bit_controller/n271
*448 byte_controller/bit_controller/U90
*449 byte_controller/bit_controller/U68
*450 prer\[13\]
*451 byte_controller/bit_controller/U209
*452 U252
*453 U231
*454 prer_reg_13_
*455 byte_controller/bit_controller/n270
*456 byte_controller/bit_controller/U66
*457 byte_controller/bit_controller/U53
*458 prer\[14\]
*459 byte_controller/bit_controller/U208
*460 U256
*461 U233
*462 prer_reg_14_
*463 byte_controller/bit_controller/n269
*464 byte_controller/bit_controller/U149
*465 byte_controller/bit_controller/U88
*466 prer\[15\]
*467 byte_controller/bit_controller/U205
*468 U248
*469 U235
*470 prer_reg_15_
*471 byte_controller/bit_controller/n268
*472 byte_controller/bit_controller/U147
*473 byte_controller/bit_controller/U86
*474 byte_controller/bit_controller/n147
*475 byte_controller/bit_controller/U203
*476 byte_controller/bit_controller/dscl_oen_reg
*477 byte_controller/bit_controller/scl_oen_reg
*478 byte_controller/bit_controller/n114
*479 byte_controller/bit_controller/U201
*480 byte_controller/bit_controller/n152
*481 byte_controller/bit_controller/U195
*482 byte_controller/bit_controller/U188
*483 byte_controller/bit_controller/U84
*484 byte_controller/bit_controller/sSCL_reg
*485 byte_controller/bit_controller/n260
*486 byte_controller/bit_controller/U46
*487 byte_controller/bit_controller/slave_wait_reg
*488 byte_controller/bit_controller/N29
*489 byte_controller/core_cmd\[1\]
*490 byte_controller/bit_controller/U200
*491 byte_controller/bit_controller/U175
*492 byte_controller/bit_controller/U96
*493 byte_controller/bit_controller/U54
*494 byte_controller/bit_controller/n264
*495 byte_controller/bit_controller/U78
*496 byte_controller/bit_controller/U42
*497 byte_controller/bit_controller/n134
*498 byte_controller/bit_controller/U202
*499 byte_controller/bit_controller/n13300
*500 byte_controller/bit_controller/U197
*501 byte_controller/bit_controller/n135
*502 byte_controller/bit_controller/U204
*503 byte_controller/bit_controller/n132
*504 byte_controller/bit_controller/n131
*505 byte_controller/bit_controller/U60
*506 byte_controller/bit_controller/U35
*507 byte_controller/bit_controller/U254
*508 byte_controller/core_cmd\[0\]
*509 byte_controller/bit_controller/U196
*510 byte_controller/bit_controller/U146
*511 byte_controller/U71
*512 byte_controller/core_cmd\[2\]
*513 byte_controller/bit_controller/U173
*514 byte_controller/U68
*515 byte_controller/core_cmd_reg_2_
*516 byte_controller/bit_controller/n60
*517 byte_controller/bit_controller/U48
*518 byte_controller/bit_controller/n153
*519 byte_controller/bit_controller/dSCL_reg
*520 byte_controller/bit_controller/n900
*521 byte_controller/bit_controller/U194
*522 byte_controller/bit_controller/U193
*523 byte_controller/bit_controller/n179
*524 byte_controller/bit_controller/n154
*525 byte_controller/bit_controller/dout_reg
*526 byte_controller/bit_controller/n223
*527 byte_controller/bit_controller/sSDA_reg
*528 byte_controller/bit_controller/dSDA_reg
*529 byte_controller/bit_controller/n155
*530 byte_controller/bit_controller/n33
*531 byte_controller/bit_controller/U192
*532 byte_controller/bit_controller/c_state_reg_0_
*533 byte_controller/bit_controller/n255
*534 byte_controller/bit_controller/c_state_reg_12_
*535 byte_controller/core_txd
*536 byte_controller/bit_controller/n790
*537 byte_controller/bit_controller/U70
*538 byte_controller/bit_controller/n780
*539 byte_controller/bit_controller/U140
*540 byte_controller/bit_controller/n200
*541 byte_controller/bit_controller/U191
*542 byte_controller/bit_controller/U126
*543 byte_controller/bit_controller/U125
*544 byte_controller/bit_controller/c_state_reg_6_
*545 byte_controller/bit_controller/n204
*546 byte_controller/bit_controller/U134
*547 byte_controller/bit_controller/U133
*548 byte_controller/bit_controller/c_state_reg_2_
*549 byte_controller/bit_controller/n203
*550 byte_controller/bit_controller/U132
*551 byte_controller/bit_controller/c_state_reg_3_
*552 byte_controller/bit_controller/n1200
*553 byte_controller/bit_controller/U165
*554 byte_controller/bit_controller/n149
*555 byte_controller/bit_controller/U190
*556 byte_controller/bit_controller/c_state_reg_13_
*557 byte_controller/bit_controller/n840
*558 byte_controller/bit_controller/U143
*559 byte_controller/bit_controller/U168
*560 byte_controller/bit_controller/n116
*561 byte_controller/bit_controller/U79
*562 byte_controller/bit_controller/U167
*563 byte_controller/bit_controller/n67
*564 byte_controller/bit_controller/U62
*565 byte_controller/bit_controller/n1190
*566 byte_controller/bit_controller/U163
*567 byte_controller/bit_controller/n117
*568 byte_controller/bit_controller/U189
*569 byte_controller/bit_controller/U160
*570 byte_controller/bit_controller/N1330
*571 byte_controller/bit_controller/al_reg
*572 byte_controller/bit_controller/n151
*573 byte_controller/bit_controller/U177
*574 byte_controller/bit_controller/n190
*575 byte_controller/bit_controller/N1261
*576 byte_controller/bit_controller/sto_condition_reg
*577 byte_controller/core_cmd\[3\]
*578 byte_controller/bit_controller/U187
*579 byte_controller/bit_controller/U113
*580 byte_controller/U69
*581 byte_controller/bit_controller/n265
*582 byte_controller/bit_controller/n21
*583 byte_controller/bit_controller/U186
*584 byte_controller/bit_controller/U22
*585 byte_controller/bit_controller/clk_en_reg
*586 byte_controller/bit_controller/n262
*587 byte_controller/bit_controller/cmd_stop_reg
*588 byte_controller/bit_controller/n920
*589 byte_controller/bit_controller/U185
*590 byte_controller/bit_controller/n930
*591 byte_controller/bit_controller/n162
*592 byte_controller/bit_controller/n182
*593 byte_controller/bit_controller/U184
*594 byte_controller/bit_controller/fSCL_reg_2_
*595 byte_controller/bit_controller/n184
*596 byte_controller/bit_controller/U182
*597 byte_controller/bit_controller/U122
*598 byte_controller/bit_controller/U121
*599 byte_controller/bit_controller/fSCL_reg_0_
*600 byte_controller/bit_controller/n183
*601 byte_controller/bit_controller/fSCL_reg_1_
*602 byte_controller/bit_controller/n12500
*603 byte_controller/bit_controller/U183
*604 byte_controller/bit_controller/n177
*605 byte_controller/bit_controller/N119
*606 byte_controller/bit_controller/n185
*607 byte_controller/bit_controller/U181
*608 byte_controller/bit_controller/fSDA_reg_2_
*609 byte_controller/bit_controller/n187
*610 byte_controller/bit_controller/U179
*611 byte_controller/bit_controller/fSDA_reg_0_
*612 byte_controller/bit_controller/n186
*613 byte_controller/bit_controller/fSDA_reg_1_
*614 byte_controller/bit_controller/n123
*615 byte_controller/bit_controller/U180
*616 byte_controller/bit_controller/n178
*617 byte_controller/bit_controller/N120
*618 byte_controller/bit_controller/sto_condition
*619 byte_controller/bit_controller/U178
*620 byte_controller/bit_controller/n145
*621 byte_controller/bit_controller/busy_reg
*622 byte_controller/bit_controller/n144
*623 byte_controller/bit_controller/sta_condition_reg
*624 byte_controller/bit_controller/N1281
*625 byte_controller/bit_controller/n188
*626 byte_controller/bit_controller/N1250
*627 byte_controller/bit_controller/n63
*628 byte_controller/bit_controller/U176
*629 byte_controller/bit_controller/n201
*630 byte_controller/bit_controller/c_state_reg_5_
*631 byte_controller/bit_controller/n360
*632 byte_controller/bit_controller/U131
*633 byte_controller/bit_controller/n235
*634 byte_controller/bit_controller/n61
*635 byte_controller/bit_controller/n59
*636 byte_controller/bit_controller/U174
*637 byte_controller/bit_controller/n197
*638 byte_controller/bit_controller/U138
*639 byte_controller/bit_controller/c_state_reg_9_
*640 byte_controller/bit_controller/n340
*641 byte_controller/bit_controller/U129
*642 byte_controller/bit_controller/U124
*643 byte_controller/bit_controller/U21
*644 byte_controller/bit_controller/n231
*645 byte_controller/bit_controller/n266
*646 byte_controller/bit_controller/n850
*647 byte_controller/bit_controller/U172
*648 byte_controller/bit_controller/n206
*649 byte_controller/bit_controller/U144
*650 byte_controller/bit_controller/U135
*651 byte_controller/bit_controller/n860
*652 byte_controller/bit_controller/U142
*653 byte_controller/bit_controller/U123
*654 byte_controller/bit_controller/U115
*655 byte_controller/bit_controller/n243
*656 byte_controller/bit_controller/n130
*657 byte_controller/bit_controller/N100
*658 byte_controller/bit_controller/n106
*659 byte_controller/bit_controller/N92
*660 byte_controller/bit_controller/n105
*661 byte_controller/bit_controller/N93
*662 byte_controller/bit_controller/n1040
*663 byte_controller/bit_controller/N94
*664 byte_controller/bit_controller/n1030
*665 byte_controller/bit_controller/N95
*666 byte_controller/bit_controller/n1020
*667 byte_controller/bit_controller/N96
*668 byte_controller/bit_controller/n10100
*669 byte_controller/bit_controller/N97
*670 byte_controller/bit_controller/n1000
*671 byte_controller/bit_controller/N98
*672 byte_controller/bit_controller/n127
*673 byte_controller/bit_controller/N103
*674 byte_controller/bit_controller/n1260
*675 byte_controller/bit_controller/N104
*676 byte_controller/bit_controller/n267
*677 byte_controller/bit_controller/n55
*678 byte_controller/bit_controller/U145
*679 byte_controller/bit_controller/n1
*680 byte_controller/bit_controller/U114
*681 byte_controller/bit_controller/n257
*682 byte_controller/bit_controller/n227
*683 byte_controller/bit_controller/n72
*684 byte_controller/bit_controller/U77
*685 byte_controller/bit_controller/U65
*686 byte_controller/bit_controller/n71
*687 byte_controller/bit_controller/U83
*688 byte_controller/bit_controller/n69
*689 byte_controller/bit_controller/U63
*690 byte_controller/bit_controller/n254
*691 byte_controller/bit_controller/U73
*692 byte_controller/bit_controller/n76
*693 byte_controller/bit_controller/U141
*694 byte_controller/bit_controller/U139
*695 byte_controller/bit_controller/n251
*696 byte_controller/bit_controller/n253
*697 byte_controller/bit_controller/U76
*698 byte_controller/bit_controller/n75
*699 byte_controller/bit_controller/n263
*700 byte_controller/bit_controller/sda_oen_reg
*701 byte_controller/bit_controller/n242
*702 byte_controller/bit_controller/n196
*703 byte_controller/bit_controller/U137
*704 byte_controller/bit_controller/c_state_reg_10_
*705 byte_controller/bit_controller/n230
*706 byte_controller/bit_controller/n195
*707 byte_controller/bit_controller/U136
*708 byte_controller/bit_controller/c_state_reg_11_
*709 byte_controller/bit_controller/n830
*710 byte_controller/bit_controller/U130
*711 byte_controller/bit_controller/U116
*712 byte_controller/bit_controller/U64
*713 byte_controller/bit_controller/n73
*714 byte_controller/bit_controller/n229
*715 byte_controller/bit_controller/n194
*716 byte_controller/bit_controller/n228
*717 byte_controller/bit_controller/n205
*718 byte_controller/bit_controller/c_state_reg_1_
*719 byte_controller/bit_controller/n239
*720 byte_controller/bit_controller/n238
*721 byte_controller/bit_controller/n237
*722 byte_controller/bit_controller/n202
*723 byte_controller/bit_controller/c_state_reg_4_
*724 byte_controller/bit_controller/n236
*725 byte_controller/bit_controller/n5
*726 byte_controller/bit_controller/U4
*727 byte_controller/bit_controller/n193
*728 byte_controller/bit_controller/c_state_reg_14_
*729 byte_controller/bit_controller/n225
*730 byte_controller/bit_controller/c_state_reg_15_
*731 byte_controller/bit_controller/n258
*732 byte_controller/bit_controller/sda_chk_reg
*733 byte_controller/bit_controller/n208
*734 byte_controller/bit_controller/n191
*735 byte_controller/bit_controller/c_state_reg_16_
*736 byte_controller/bit_controller/n240
*737 byte_controller/bit_controller/n234
*738 byte_controller/bit_controller/n199
*739 byte_controller/bit_controller/c_state_reg_7_
*740 byte_controller/bit_controller/n233
*741 byte_controller/bit_controller/n198
*742 byte_controller/bit_controller/c_state_reg_8_
*743 byte_controller/bit_controller/n232
*744 byte_controller/bit_controller/n226
*745 byte_controller/bit_controller/n181